Codigos/Simulacoes/57/06 - EE/ieee57_16_1600_EE.txt
================================================================================= 
=== UFF - Doutorado em Computação - Aplicaçoes em Sistemas de Potencia        === 
=== ESTIMADOR DE ESTADO MÍNIMOS QUADRADOS PONDERADOS INCLUINDO MEDIDAS DE PMU === 
=== Desenvolvido por: Rui Menezes de Moraes - 2009                            === 
================================================================================= 
Arquivo de medidores:          F:\Documents\Uff\Artigos\SimSEP\VERSAO WELDAN V2\Codigos\Med\ieee57_16_1600.med
Arquivo do sistema:            F:\Documents\Uff\Artigos\SimSEP\VERSAO WELDAN V2\Codigos\Carga\ieee57_16_1600.txt
Tolerância entre iteraçoes:     1.00e-04
Limite de iteraçoes:           100

--- DADOS DA REDE --------------------------------------------------------------- 
Data do caso:                  08/25/93
Origem:                        UW ARCHIVE          
MVA base:                      100
Ano:                           1961
Estação:                       W
Identificação:                 IEEE 57 Bus Test Case
Número de barras:              57 
Número de ramos:               80 
Referência na barra:           1

--- TELEMEDIDAS ------------------------------------------------------------------
    Tipo 1 = Fluxo de potencia ativa        Tipo  6 = Módulo da tensão            
    Tipo 2 = Injeção de potencia ativa      Tipo  7 = Corrente de ramo (real)     
    Tipo 3 = Ângulo de fase da tensão       Tipo  8 = Corrente de ramo (imag)     
    Tipo 4 = Fluxo de potencia reativa      Tipo  9 = Injeção de corrente (real)  
    Tipo 5 = Injeção de potencia reativa    Tipo 10 = Injeção de corrente (imag)  
----------------------------------------------------------------------------------
   N    D    P TP  PN ST   Exa   FS       DP      V_Ref      V_Med          E(%) 
----------------------------------------------------------------------------------
   1    0    1  6   0  0 0.015 01.1  0.00520   +1.04000   +1.05090     +1.048077 
   2    0    2  6   0  0 0.015 01.1  0.00505   +1.01000   +1.01208     +0.205941 
   3    0    3  6   0  0 0.015 01.1  0.00491   +0.98165   +0.98049     -0.118168 
   4    0    4  6   0  0 0.015 01.1  0.00487   +0.97484   +0.96220     -1.296623 
   5    0    5  6   0  0 0.015 01.1  0.00486   +0.97166   +0.96826     -0.349917 
   6    0    6  6   0  0 0.015 01.1  0.00489   +0.97828   +0.98533     +0.720653 
   7    0    7  6   0  0 0.015 01.1  0.00488   +0.97657   +0.97722     +0.066559 
   8    0    8  6   0  0 0.015 01.1  0.00502   +1.00500   +1.00490     -0.009950 
   9    0    9  6   0  0 0.015 01.1  0.00483   +0.96538   +0.97495     +0.991319 
  10    0   10  6   0  0 0.015 01.1  0.00476   +0.95163   +0.93784     -1.449093 
  11    0   11  6   0  0 0.015 01.1  0.00474   +0.94779   +0.94108     -0.707963 
  12    0   12  6   0  0 0.015 01.1  0.00491   +0.98205   +0.97150     -1.074283 
  13    0   13  6   0  0 0.015 01.1  0.00475   +0.94908   +0.93579     -1.400303 
  14    0   14  6   0  0 0.015 01.1  0.00470   +0.93982   +0.93388     -0.632036 
  15    0   15  6   0  0 0.015 01.1  0.00483   +0.96707   +0.97850     +1.181921 
  16    0   16  6   0  0 0.015 01.1  0.00489   +0.97875   +0.96886     -1.010473 
  17    0   17  6   0  0 0.015 01.1  0.00496   +0.99174   +1.00629     +1.467118 
  18    0   18  6   0  0 0.015 01.1  0.00491   +0.98199   +0.97112     -1.106936 
  19    0   19  6   0  0 0.015 01.1  0.00467   +0.93412   +0.93320     -0.098488 
  20    0   20  6   0  0 0.015 01.1  0.00461   +0.92122   +0.91763     -0.389701 
  21    0   21  6   0  0 0.015 01.1  0.00480   +0.95957   +0.96411     +0.473129 
  22    0   22  6   0  0 0.015 01.1  0.00480   +0.96011   +0.97087     +1.120705 
  23    0   23  6   0  0 0.015 01.1  0.00479   +0.95816   +0.95226     -0.615764 
  24    0   24  6   0  0 0.015 01.1  0.00473   +0.94572   +0.93927     -0.682020 
  25    0   25  6   0  0 0.015 01.1  0.00452   +0.90325   +0.89189     -1.257681 
  26    0   26  6   0  0 0.015 01.1  0.00455   +0.91085   +0.90228     -0.940879 
  27    0   27  6   0  0 0.015 01.1  0.00475   +0.95067   +0.95809     +0.780502 
  28    0   28  6   0  0 0.015 01.1  0.00487   +0.97404   +0.98601     +1.228902 
  29    0   29  6   0  0 0.015 01.1  0.00497   +0.99366   +0.99797     +0.433750 
  30    0   30  6   0  0 0.015 01.1  0.00438   +0.87584   +0.87630     +0.052521 
  31    0   31  6   0  0 0.015 01.1  0.00420   +0.83954   +0.84462     +0.605093 
  32    0   32  6   0  0 0.015 01.1  0.00431   +0.86222   +0.85045     -1.365081 
  33    0   33  6   0  0 0.015 01.1  0.00430   +0.85902   +0.86908     +1.171102 
  34    0   34  6   0  0 0.015 01.1  0.00445   +0.89035   +0.89496     +0.517774 
  35    0   35  6   0  0 0.015 01.1  0.00450   +0.90078   +0.89172     -1.005795 
  36    0   36  6   0  0 0.015 01.1  0.00457   +0.91456   +0.91463     +0.007654 
  37    0   37  6   0  0 0.015 01.1  0.00463   +0.92681   +0.92769     +0.094949 
  38    0   38  6   0  0 0.015 01.1  0.00482   +0.96406   +0.96765     +0.372383 
  39    0   39  6   0  0 0.015 01.1  0.00462   +0.92422   +0.93710     +1.393608 
  40    0   40  6   0  0 0.015 01.1  0.00456   +0.91119   +0.91308     +0.207421 
  41    0   41  6   0  0 0.015 01.1  0.00476   +0.95206   +0.95428     +0.233179 
  42    0   42  6   0  0 0.015 01.1  0.00454   +0.90834   +0.92026     +1.312284 
  43    0   43  6   0  0 0.015 01.1  0.00488   +0.97695   +0.96410     -1.315318 
  44    0   44  6   0  0 0.015 01.1  0.00487   +0.97327   +0.97792     +0.477771 
  45    0   45  6   0  0 0.015 01.1  0.00504   +1.00864   +0.99652     -1.201618 
  46    0   46  6   0  0 0.015 01.1  0.00511   +1.02189   +1.02522     +0.325867 
  47    0   47  6   0  0 0.015 01.1  0.00494   +0.98844   +0.99746     +0.912549 
  48    0   48  6   0  0 0.015 01.1  0.00491   +0.98110   +0.96734     -1.402507 
  49    0   49  6   0  0 0.015 01.1  0.00495   +0.99014   +0.99080     +0.066657 
  50    0   50  6   0  0 0.015 01.1  0.00486   +0.97261   +0.96671     -0.606615 
  51    0   51  6   0  0 0.015 01.1  0.00505   +1.01080   +1.01567     +0.481797 
  52    0   52  6   0  0 0.015 01.1  0.00475   +0.94983   +0.95261     +0.292684 
  53    0   53  6   0  0 0.015 01.1  0.00468   +0.93493   +0.92263     -1.315607 
  54    0   54  6   0  0 0.015 01.1  0.00484   +0.96780   +0.97915     +1.172763 
  55    0   55  6   0  0 0.015 01.1  0.00506   +1.01274   +1.02651     +1.359678 
  56    0   56  6   0  0 0.015 01.1  0.00454   +0.90728   +0.89859     -0.957808 
  57    0   57  6   0  0 0.015 01.1  0.00450   +0.90080   +0.88928     -1.278863 
  58    0    1  2   0  0 0.020 01.0  0.05090   +7.37521   +7.52426     +2.020959 
  59    0    2  2   0  0 0.020 01.0  0.00199   -0.03800   -0.03886     +2.263158 
  60    0    3  2   0  0 0.020 01.0  0.00254   -0.12100   -0.11705     -3.264463 
  61    0    4  2   0  0 0.020 01.0  0.00173   +0.00000   +0.00440     +0.000000 
  62    0    5  2   0  0 0.020 01.0  0.00283   -0.16500   -0.15867     -3.836364 
  63    0    6  2   0  0 0.020 01.0  0.00809   -0.95300   -0.93052     -2.358867 
  64    0    7  2   0  0 0.020 01.0  0.00173   +0.00000   -0.00211     +0.000000 
  65    0    8  2   0  0 0.020 01.0  0.01903   +2.59500   +2.61899     +0.924470 
  66    0    9  2   0  0 0.020 01.0  0.00835   -0.99200   -0.97191     -2.025202 
  67    0   10  2   0  0 0.020 01.0  0.00257   -0.12500   -0.11924     -4.608000 
  68    0   11  2   0  0 0.020 01.0  0.00173   +0.00000   +0.00342     +0.000000 
  69    0   12  2   0  0 0.020 01.0  0.01299   -1.68800   -1.72422     +2.145735 
  70    0   13  2   0  0 0.020 01.0  0.00326   -0.22900   -0.22106     -3.467249 
  71    0   14  2   0  0 0.020 01.0  0.00262   -0.13300   -0.13099     -1.511278 
  72    0   15  2   0  0 0.020 01.0  0.00359   -0.27900   -0.27743     -0.562724 
  73    0   16  2   0  0 0.020 01.0  0.00537   -0.54600   -0.53832     -1.406593 
  74    0   17  2   0  0 0.020 01.0  0.00529   -0.53300   -0.53274     -0.048780 
  75    0   18  2   0  0 0.020 01.0  0.00403   -0.34500   -0.33617     -2.559420 
  76    0   19  2   0  0 0.020 01.0  0.00201   -0.04200   -0.04635    +10.357143 
  77    0   20  2   0  0 0.020 01.0  0.00193   -0.02900   -0.02718     -6.275862 
  78    0   21  2   0  0 0.020 01.0  0.00173   -0.00000   +0.00097     +0.000000 
  79    0   22  2   0  0 0.020 01.0  0.00173   -0.00000   +0.00014     +0.000000 
  80    0   23  2   0  0 0.020 01.0  0.00227   -0.08000   -0.08347     +4.337500 
  81    0   24  2   0  0 0.020 01.0  0.00173   -0.00000   +0.00492     +0.000000 
  82    0   25  2   0  0 0.020 01.0  0.00227   -0.08000   -0.07434     -7.075000 
  83    0   26  2   0  0 0.020 01.0  0.00173   -0.00000   +0.00158     +0.000000 
  84    0   27  2   0  0 0.020 01.0  0.00252   -0.11800   -0.12389     +4.991525 
  85    0   28  2   0  0 0.020 01.0  0.00212   -0.05800   -0.05781     -0.327586 
  86    0   29  2   0  0 0.020 01.0  0.00317   -0.21600   -0.21636     +0.166667 
  87    0   30  2   0  0 0.020 01.0  0.00204   -0.04600   -0.05129    +11.500000 
  88    0   31  2   0  0 0.020 01.0  0.00223   -0.07400   -0.07549     +2.013514 
  89    0   32  2   0  0 0.020 01.0  0.00187   -0.02000   -0.01658    -17.100000 
  90    0   33  2   0  0 0.020 01.0  0.00205   -0.04800   -0.04447     -7.354167 
  91    0   34  2   0  0 0.020 01.0  0.00173   -0.00000   -0.00395     +0.000000 
  92    0   35  2   0  0 0.020 01.0  0.00224   -0.07600   -0.07718     +1.552632 
  93    0   36  2   0  0 0.020 01.0  0.00173   -0.00000   +0.00310     +0.000000 
  94    0   37  2   0  0 0.020 01.0  0.00173   +0.00000   -0.00257     +0.000000 
  95    0   38  2   0  0 0.020 01.0  0.00292   -0.17800   -0.17647     -0.859551 
  96    0   39  2   0  0 0.020 01.0  0.00173   -0.00000   -0.00482     +0.000000 
  97    0   40  2   0  0 0.020 01.0  0.00173   -0.00000   +0.00189     +0.000000 
  98    0   41  2   0  0 0.020 01.0  0.00227   -0.08000   -0.07556     -5.550000 
  99    0   42  2   0  0 0.020 01.0  0.00233   -0.09000   -0.08720     -3.111111 
 100    0   43  2   0  0 0.020 01.0  0.00190   -0.02500   -0.02669     +6.760000 
 101    0   44  2   0  0 0.020 01.0  0.00275   -0.15200   -0.15218     +0.118421 
 102    0   45  2   0  0 0.020 01.0  0.00173   +0.00000   -0.00225     +0.000000 
 103    0   46  2   0  0 0.020 01.0  0.00173   +0.00000   -0.00243     +0.000000 
 104    0   47  2   0  0 0.020 01.0  0.00425   -0.37700   -0.37025     -1.790451 
 105    0   48  2   0  0 0.020 01.0  0.00173   -0.00000   +0.00088     +0.000000 
 106    0   49  2   0  0 0.020 01.0  0.00326   -0.22900   -0.22825     -0.327511 
 107    0   50  2   0  0 0.020 01.0  0.00351   -0.26700   -0.25666     -3.872659 
 108    0   51  2   0  0 0.020 01.0  0.00326   -0.22900   -0.22374     -2.296943 
 109    0   52  2   0  0 0.020 01.0  0.00215   -0.06200   -0.06089     -1.790323 
 110    0   53  2   0  0 0.020 01.0  0.00343   -0.25400   -0.24802     -2.354331 
 111    0   54  2   0  0 0.020 01.0  0.00208   -0.05200   -0.05139     -1.173077 
 112    0   55  2   0  0 0.020 01.0  0.00231   -0.08600   -0.09186     +6.813953 
 113    0   56  2   0  0 0.020 01.0  0.00238   -0.09700   -0.09737     +0.381443 
 114    0   57  2   0  0 0.020 01.0  0.00230   -0.08500   -0.08017     -5.682353 
 115    0    1  5   0  0 0.020 01.0  0.01152   +1.46844   +1.46174     -0.456267 
 116    0    2  5   0  0 0.020 01.0  0.00676   -0.75379   -0.76447     +1.416840 
 117    0    3  5   0  0 0.020 01.0  0.00395   +0.33300   +0.33398     +0.294294 
 118    0    4  5   0  0 0.020 01.0  0.00173   +0.00000   -0.00136     +0.000000 
 119    0    5  5   0  0 0.020 01.0  0.00207   -0.05100   -0.04778     -6.313725 
 120    0    6  5   0  0 0.020 01.0  0.00323   +0.22500   +0.23022     +2.320000 
 121    0    7  5   0  0 0.020 01.0  0.00173   -0.00000   -0.00160     +0.000000 
 122    0    8  5   0  0 0.020 01.0  0.00742   +0.85259   +0.87339     +2.439625 
 123    0    9  5   0  0 0.020 01.0  0.00255   -0.12300   -0.12521     +1.796748 
 124    0   10  5   0  0 0.020 01.0  0.00207   -0.05000   -0.05380     +7.600000 
 125    0   11  5   0  0 0.020 01.0  0.00173   -0.00000   -0.00425     +0.000000 
 126    0   12  5   0  0 0.020 01.0  0.01003   +1.24500   +1.23376     -0.902811 
 127    0   13  5   0  0 0.020 01.0  0.00193   -0.02900   -0.02370    -18.275862 
 128    0   14  5   0  0 0.020 01.0  0.00218   -0.06700   -0.06519     -2.701493 
 129    0   15  5   0  0 0.020 01.0  0.00215   -0.06300   -0.06677     +5.984127 
 130    0   16  5   0  0 0.020 01.0  0.00199   -0.03800   -0.03999     +5.236842 
 131    0   17  5   0  0 0.020 01.0  0.00241   -0.10200   -0.10427     +2.225490 
 132    0   18  5   0  0 0.020 01.0  0.00256   -0.12400   -0.11794     -4.887097 
 133    0   19  5   0  0 0.020 01.0  0.00179   -0.00800   -0.00796     -0.500000 
 134    0   20  5   0  0 0.020 01.0  0.00182   -0.01300   -0.01232     -5.230769 
 135    0   21  5   0  0 0.020 01.0  0.00173   -0.00000   +0.00301     +0.000000 
 136    0   22  5   0  0 0.020 01.0  0.00173   +0.00000   -0.00155     +0.000000 
 137    0   23  5   0  0 0.020 01.0  0.00191   -0.02700   -0.03021    +11.888889 
 138    0   24  5   0  0 0.020 01.0  0.00173   -0.00000   +0.00336     +0.000000 
 139    0   25  5   0  0 0.020 01.0  0.00201   -0.04100   -0.04610    +12.439024 
 140    0   26  5   0  0 0.020 01.0  0.00173   +0.00000   -0.00435     +0.000000 
 141    0   27  5   0  0 0.020 01.0  0.00177   -0.00600   -0.00802    +33.666667 
 142    0   28  5   0  0 0.020 01.0  0.00193   -0.02900   -0.02489    -14.172414 
 143    0   29  5   0  0 0.020 01.0  0.00195   -0.03300   -0.03330     +0.909091 
 144    0   30  5   0  0 0.020 01.0  0.00189   -0.02300   -0.02499     +8.652174 
 145    0   31  5   0  0 0.020 01.0  0.00198   -0.03700   -0.03747     +1.270270 
 146    0   32  5   0  0 0.020 01.0  0.00180   -0.01000   -0.00812    -18.800000 
 147    0   33  5   0  0 0.020 01.0  0.00189   -0.02400   -0.02316     -3.500000 
 148    0   34  5   0  0 0.020 01.0  0.00173   +0.00000   +0.00357     +0.000000 
 149    0   35  5   0  0 0.020 01.0  0.00199   -0.03800   -0.04306    +13.315789 
 150    0   36  5   0  0 0.020 01.0  0.00173   +0.00000   -0.00250     +0.000000 
 151    0   37  5   0  0 0.020 01.0  0.00173   +0.00000   +0.00195     +0.000000 
 152    0   38  5   0  0 0.020 01.0  0.00233   -0.08900   -0.08994     +1.056180 
 153    0   39  5   0  0 0.020 01.0  0.00173   -0.00000   -0.00183     +0.000000 
 154    0   40  5   0  0 0.020 01.0  0.00173   -0.00000   -0.00472     +0.000000 
 155    0   41  5   0  0 0.020 01.0  0.00199   -0.03800   -0.04026     +5.947368 
 156    0   42  5   0  0 0.020 01.0  0.00211   -0.05600   -0.05693     +1.660714 
 157    0   43  5   0  0 0.020 01.0  0.00182   -0.01300   -0.01174     -9.692308 
 158    0   44  5   0  0 0.020 01.0  0.00189   -0.02300   -0.02591    +12.652174 
 159    0   45  5   0  0 0.020 01.0  0.00173   +0.00000   +0.00359     +0.000000 
 160    0   46  5   0  0 0.020 01.0  0.00173   +0.00000   +0.00398     +0.000000 
 161    0   47  5   0  0 0.020 01.0  0.00271   -0.14700   -0.14003     -4.741497 
 162    0   48  5   0  0 0.020 01.0  0.00173   -0.00000   +0.00065     +0.000000 
 163    0   49  5   0  0 0.020 01.0  0.00245   -0.10800   -0.11090     +2.685185 
 164    0   50  5   0  0 0.020 01.0  0.00262   -0.13300   -0.12875     -3.195489 
 165    0   51  5   0  0 0.020 01.0  0.00218   -0.06700   -0.06691     -0.134328 
 166    0   52  5   0  0 0.020 01.0  0.00192   -0.02800   -0.02670     -4.642857 
 167    0   53  5   0  0 0.020 01.0  0.00258   -0.12700   -0.12411     -2.275591 
 168    0   54  5   0  0 0.020 01.0  0.00185   -0.01800   -0.02263    +25.722222 
 169    0   55  5   0  0 0.020 01.0  0.00202   -0.04300   -0.04041     -6.023256 
 170    0   56  5   0  0 0.020 01.0  0.00192   -0.02800   -0.03032     +8.285714 
 171    0   57  5   0  0 0.020 01.0  0.00190   -0.02500   -0.02804    +12.160000 
 172    1    2  1   0  0 0.020 01.0  0.01415   +1.86295   +1.84745     -0.832014 
 173    2    3  1   0  0 0.020 01.0  0.01370   +1.79556   +1.77763     -0.998574 
 174    3    4  1   0  0 0.020 01.0  0.00949   +1.16429   +1.15008     -1.220486 
 175    4    5  1   0  0 0.020 01.0  0.00392   +0.32777   +0.31892     -2.700064 
 176    4    6  1   0  0 0.020 01.0  0.00447   +0.41128   +0.41579     +1.096577 
 177    6    7  1   0  0 0.020 01.0  0.00207   -0.05044   -0.05319     +5.452022 
 178    6    8  1   0  0 0.020 01.0  0.00404   -0.34663   -0.35276     +1.768456 
 179    8    9  1   0  0 0.020 01.0  0.01152   +1.46733   +1.47209     +0.324399 
 180    9   10  1   0  0 0.020 01.0  0.00315   +0.21200   +0.20353     -3.995283 
 181    9   11  1   0  0 0.020 01.0  0.00209   +0.05356   +0.05761     +7.561613 
 182    9   12  1   0  0 0.020 01.0  0.00182   +0.01303   +0.00797    -38.833461 
 183    9   13  1   0  0 0.020 01.0  0.00228   -0.08237   -0.08556     +3.872769 
 184   13   14  1   0  0 0.020 01.0  0.00403   -0.34405   -0.34883     +1.389333 
 185   13   15  1   0  0 0.020 01.0  0.00759   -0.87862   -0.87122     -0.842230 
 186    1   15  1   0  0 0.020 01.0  0.01894   +2.58018   +2.59447     +0.553837 
 187    1   16  1   0  0 0.020 01.0  0.01090   +1.37561   +1.38950     +1.009734 
 188    1   17  1   0  0 0.020 01.0  0.01211   +1.55647   +1.54018     -1.046599 
 189    3   15  1   0  0 0.020 01.0  0.00450   +0.41547   +0.42887     +3.225263 
 190    4   18  1   0  0 0.020 01.0  0.00293   +0.17948   +0.17597     -1.955650 
 191    4   18  1   0  0 0.020 01.0  0.00327   +0.22976   +0.22978     +0.008705 
 192    5    6  1   0  0 0.020 01.0  0.00277   +0.15473   +0.14863     -3.942351 
 193    7    8  1   0  0 0.020 01.0  0.00685   -0.76729   -0.75095     -2.129573 
 194   10   12  1   0  0 0.020 01.0  0.00343   -0.25453   -0.25992     +2.117629 
 195   11   13  1   0  0 0.020 01.0  0.00330   -0.23549   -0.24407     +3.643467 
 196   12   13  1   0  0 0.020 01.0  0.00349   -0.26429   -0.26711     +1.067010 
 197   12   16  1   0  0 0.020 01.0  0.00665   -0.73754   -0.71803     -2.645280 
 198   12   17  1   0  0 0.020 01.0  0.00794   -0.93079   -0.94450     +1.472942 
 199   14   15  1   0  0 0.020 01.0  0.00914   -1.11115   -1.12281     +1.049363 
...
Número de medidores SCADA:     491
Número de PMUs:                0
Número de medidas das PMUs:    0
----------------------------------------------------------------------------------

Não há medidas de ângulo.
Não há medidores desabilitados.
============================== Estado Estimado ===================================
                 Barra     Mod(pu)    Ang(graus)              
----------------------------------------------------------------------------------
                    1            1.0406              0.00        
                    2            1.0104             -2.58        
                    3            0.9821            -11.67        
                    4            0.9755            -14.29        
                    5            0.9722            -17.40        
                    6            0.9789            -18.31        
                    7            0.9769            -17.98        
                    8            1.0054            -15.00        
                    9            0.9655            -19.06        
                   10            0.9513            -21.19        
                   11            0.9478            -19.05        
                   12            0.9820            -19.53        
                   13            0.9493            -17.86        
                   14            0.9401            -16.64        
                   15            0.9673            -12.88        
                   16            0.9786            -15.69        
                   17            0.9923             -9.08        
                   18            0.9817            -19.75        
                   19            0.9315            -21.88        
                   20            0.9188            -22.22        
                   21            0.9600            -21.89        
                   22            0.9603            -21.84        
                   23            0.9584            -21.98        
                   24            0.9466            -23.24        
                   25            0.9024            -30.21        
                   26            0.9115            -22.94        
                   27            0.9509            -22.22        
                   28            0.9745            -21.28        
                   29            0.9939            -20.62        
                   30            0.8743            -31.02        
                   31            0.8373            -31.95        
                   32            0.8612            -30.40        
                   33            0.8580            -30.46        
                   34            0.8896            -23.73        
                   35            0.9002            -23.36        
                   36            0.9141            -22.98        
                   37            0.9264            -22.69        
                   38            0.9642            -21.56        
                   39            0.9236            -22.77        
                   40            0.9107            -23.06        
                   41            0.9527            -24.33        
                   42            0.9095            -26.18        
                   43            0.9773            -20.63        
                   44            0.9733            -20.12        
                   45            1.0088            -16.16        
                   46            1.0223            -19.13        
                   47            0.9886            -21.15        
                   48            0.9812            -21.35        
                   49            0.9901            -22.00        
                   50            0.9726            -23.06        
                   51            1.0102            -22.53        
                   52            0.9497            -22.53        
                   53            0.9349            -23.31        
                   54            0.9675            -22.23        
                   55            1.0130            -20.77        
                   56            0.9083            -26.77        
                   57            0.9019            -27.43        
----------------------------------------------------------------------------------
Convergiu em:    3 iteraçoes. 
----------------------------------------------------------------------------------
--- RESIDUOS NORMALIZADOS --------------------------------------------------------
   N    D    P  TP      Real     Medido   Estimado      Med-Est        rn 
----------------------------------------------------------------------------------
 190    4   18  1    +0.1795    +0.1760    +0.2165  -4.0501e-02      0.798 
 350   18    4  1    -0.1795    -0.1828    -0.2165  +3.3711e-02      0.664 
  58    0    1  2    +7.3752    +7.5243    +7.3959  +1.2834e-01      0.637 
  61    0    4  2    +0.0000    +0.0044    -0.0030  +7.3771e-03      0.401 
  75    0   18  2    -0.3450    -0.3362    -0.3176  -1.8611e-02      0.372 
  59    0    2  2    -0.0380    -0.0389    -0.0456  +6.7489e-03      0.362 
  60    0    3  2    -0.1210    -0.1171    -0.1258  +8.7972e-03      0.339 
 197   12   16  1    -0.7375    -0.7180    -0.7407  +2.2646e-02      0.311 
  68    0   11  2    +0.0000    +0.0034    -0.0031  +6.5484e-03      0.280 
 132    0   18  5    -0.1240    -0.1179    -0.1291  +1.1127e-02      0.278 
 348   17    1  1    -1.5019    -1.5349    -1.5067  -2.8148e-02      0.276 
  66    0    9  2    -0.9920    -0.9719    -0.9888  +1.6868e-02      0.264 
  63    0    6  2    -0.9530    -0.9305    -0.9496  +1.9118e-02      0.263 
 349   15    3  1    -0.4122    -0.4041    -0.4201  +1.6003e-02      0.262 
  65    0    8  2    +2.5950    +2.6190    +2.5890  +2.9983e-02      0.257 
 191    4   18  1    +0.2298    +0.2298    +0.2165  +1.3309e-02      0.247 
 390   46   14  1    -0.6310    -0.6137    -0.6313  +1.7655e-02      0.246 
 333    3    2  1    -1.7008    -1.6728    -1.6995  +2.6785e-02      0.242 
  71    0   14  2    -0.1330    -0.1310    -0.1379  +6.9089e-03      0.241 
  62    0    5  2    -0.1650    -0.1587    -0.1680  +9.3549e-03      0.237 
 229   15   45  1    +0.5605    +0.5456    +0.5610  -1.5437e-02      0.223 
 122    0    8  5    +0.8526    +0.8734    +0.8583  +1.5130e-02      0.218 
 332    2    1  1    -1.8336    -1.8635    -1.8397  -2.3748e-02      0.214 
 115    0    1  5    +1.4684    +1.4617    +1.4801  -1.8382e-02      0.209 
 188    1   17  1    +1.5565    +1.5402    +1.5616  -2.1431e-02      0.209 
 175    4    5  1    +0.3278    +0.3189    +0.3312  -1.2288e-02      0.206 
 379   36   35  1    +0.1770    +0.1689    +0.1783  -9.4016e-03      0.203 
  72    0   15  2    -0.2790    -0.2774    -0.2833  +5.8669e-03      0.203 
  69    0   12  2    -1.6880    -1.7242    -1.7055  -1.8694e-02      0.203 
 372   29    7  1    -0.7168    -0.6988    -0.7136  +1.4722e-02      0.202 
  39    0   39  6    +0.9242    +0.9371    +0.9236  +1.3500e-02      0.201 
 161    0   47  5    -0.1470    -0.1400    -0.1480  +8.0032e-03      0.201 
  17    0   17  6    +0.9917    +1.0063    +0.9923  +1.4029e-02      0.201 
  48    0   48  6    +0.9811    +0.9673    +0.9812  -1.3887e-02      0.200 
 419    9    8  4    -0.4517    -0.4439    -0.4561  +1.2169e-02      0.200 
  13    0   13  6    +0.9491    +0.9358    +0.9493  -1.3495e-02      0.197 
 460   37   36  4    +0.1321    +0.1250    +0.1335  -8.5728e-03      0.197 
  10    0   10  6    +0.9516    +0.9378    +0.9513  -1.3418e-02      0.196 
 172    1    2  1    +1.8630    +1.8475    +1.8693  -2.1854e-02      0.196 
  57    0   57  6    +0.9008    +0.8893    +0.9019  -1.2626e-02      0.195 
  55    0   55  6    +1.0127    +1.0265    +1.0130  +1.3545e-02      0.192 
   4    0    4  6    +0.9748    +0.9622    +0.9755  -1.3275e-02      0.191 
  43    0   43  6    +0.9769    +0.9641    +0.9773  -1.3164e-02      0.190 
  53    0   53  6    +0.9349    +0.9226    +0.9349  -1.2310e-02      0.183 
 362   20   21  1    -0.0093    -0.0134    -0.0064  -7.0098e-03      0.183 
 430   18    4  4    -0.0316    -0.0330    -0.0255  -7.5005e-03      0.181 
 108    0   51  2    -0.2290    -0.2237    -0.2316  +7.8482e-03      0.179 
 131    0   17  5    -0.1020    -0.1043    -0.0978  -6.4462e-03      0.179 
 268    1   17  4    +0.2254    +0.2164    +0.2256  -9.2148e-03      0.179 
  33    0   33  6    +0.8590    +0.8691    +0.8580  +1.1055e-02      0.178 
 331    9   55  4    +0.1254    +0.1326    +0.1250  +7.6601e-03      0.176 
 241   54   55  1    -0.1633    -0.1710    -0.1624  -8.5338e-03      0.175 
  45    0   45  6    +1.0086    +0.9965    +1.0088  -1.2296e-02      0.175 
  32    0   32  6    +0.8622    +0.8505    +0.8612  -1.0781e-02      0.173 
 412    2    1  4    -0.5665    -0.5811    -0.5701  -1.0994e-02      0.172 
 354   12   10  1    +0.2574    +0.2639    +0.2547  +9.2229e-03      0.171 
 255    4    5  4    -0.1336    -0.1264    -0.1347  +8.2520e-03      0.169 
  54    0   54  6    +0.9678    +0.9791    +0.9675  +1.1607e-02      0.169 
  28    0   28  6    +0.9740    +0.9860    +0.9745  +1.1550e-02      0.167 
 391   47   46  1    -0.6202    -0.6033    -0.6152  +1.1881e-02      0.166 
 235   50   51  1    -0.1075    -0.1120    -0.1044  -7.6177e-03      0.166 
 411   55    9  1    -0.2551    -0.2502    -0.2585  +8.3144e-03      0.165 
  42    0   42  6    +0.9083    +0.9203    +0.9095  +1.0741e-02      0.164 
  25    0   25  6    +0.9032    +0.8919    +0.9024  -1.0554e-02      0.164 
 178    6    8  1    -0.3466    -0.3528    -0.3428  -9.9543e-03      0.163 
  15    0   15  6    +0.9671    +0.9785    +0.9673  +1.1151e-02      0.161 
 279   14   15  4    -0.0920    -0.0973    -0.0901  -7.1519e-03      0.161 
 109    0   52  2    -0.0620    -0.0609    -0.0661  +5.2471e-03      0.161 
 298   34   35  4    -0.0547    -0.0604    -0.0540  -6.3480e-03      0.161 
 180    9   10  1    +0.2120    +0.2035    +0.2120  -8.4947e-03      0.161 
 459   36   35  4    +0.0926    +0.0870    +0.0935  -6.5436e-03      0.159 
 312   47   48  4    +0.1216    +0.1185    +0.1254  -6.9067e-03      0.158 
 227   41   43  1    -0.1468    -0.1537    -0.1460  -7.6645e-03      0.158 
 365   24   23  1    -0.0775    -0.0815    -0.0747  -6.7739e-03      0.158 
 170    0   56  5    -0.0280    -0.0303    -0.0257  -4.6483e-03      0.157 
 335    5    4  1    -0.3197    -0.3137    -0.3230  +9.3194e-03      0.157 
 351   18    4  1    -0.2298    -0.2249    -0.2165  -8.4487e-03      0.157 
 347   16    1  1    -1.2947    -1.3137    -1.2981  -1.5589e-02      0.157 
 330   38   48  4    -0.2051    -0.1988    -0.2066  +7.8426e-03      0.156 
 236   10   51  1    +0.3397    +0.3477    +0.3390  +8.6462e-03      0.154 
  22    0   22  6    +0.9601    +0.9709    +0.9603  +1.0522e-02      0.153 
  18    0   18  6    +0.9820    +0.9711    +0.9817  -1.0599e-02      0.153 
 219   35   36  1    -0.1749    -0.1832    -0.1762  -7.0609e-03      0.152 
 421   11    9  4    -0.1905    -0.1990    -0.1912  -7.7845e-03      0.152 
 154    0   40  5    -0.0000    -0.0047    +0.0003  -5.0538e-03      0.151 
 193    7    8  1    -0.7673    -0.7510    -0.7625  +1.1563e-02      0.151 
 114    0   57  2    -0.0850    -0.0802    -0.0860  +5.8762e-03      0.151 
 177    6    7  1    -0.0504    -0.0532    -0.0472  -5.9884e-03      0.151 
  12    0   12  6    +0.9820    +0.9715    +0.9820  -1.0458e-02      0.150 
 194   10   12  1    -0.2545    -0.2599    -0.2518  -8.0712e-03      0.150 
  73    0   16  2    -0.5460    -0.5383    -0.5462  +7.9048e-03      0.150 
 182    9   12  1    +0.0130    +0.0080    +0.0142  -6.2071e-03      0.149 
 387   43   41  1    +0.1468    +0.1388    +0.1460  -7.2155e-03      0.149 
...